*SPEF "ieee 1481-1999"
*DESIGN "radio"
*DATE "09:42:59 Thursday June 26, 2025"
*VENDOR "The OpenROAD Project"
*PROGRAM "OpenROAD"
*VERSION "b16bda7e82721d10566ff7e2b68f1ff0be9f9e38"
*DESIGN_FLOW "NAME_SCOPE LOCAL" "PIN_CAP NONE"
*DIVIDER /
*DELIMITER :
*BUS_DELIMITER []
*T_UNIT 1 NS
*C_UNIT 1 PF
*R_UNIT 1 OHM
*L_UNIT 1 HENRY

*NAME_MAP
*1 Rx
*2 Tx
*5 busy
*6 clk
*7 enable
*8 receive
*9 rx_data[0]
*10 rx_data[1]
*11 rx_data[2]
*12 rx_data[3]
*13 rx_data[4]
*14 rx_data[5]
*15 rx_data[6]
*16 rx_data[7]
*17 send
*18 tx_data[0]
*19 tx_data[1]
*20 tx_data[2]
*21 tx_data[3]
*22 tx_data[4]
*23 tx_data[5]
*24 tx_data[6]
*25 tx_data[7]
*26 _000_
*27 _001_
*28 _002_
*29 _003_
*30 _004_
*31 _005_
*32 _006_
*33 _007_
*34 _008_
*35 _009_
*36 _010_
*37 _011_
*38 _012_
*39 _013_
*40 _014_
*41 _015_
*42 _016_
*43 _017_
*44 _018_
*45 _019_
*46 _020_
*47 _021_
*48 _022_
*49 _023_
*50 _024_
*51 _025_
*52 _026_
*53 _027_
*54 _028_
*55 _029_
*56 _030_
*57 _031_
*58 _032_
*59 _033_
*60 _034_
*61 _035_
*62 _036_
*63 _037_
*64 _038_
*65 _039_
*66 _040_
*67 _041_
*68 _042_
*69 _043_
*70 _044_
*71 _045_
*72 _046_
*73 _047_
*74 _048_
*75 _049_
*76 _050_
*77 _051_
*78 _052_
*79 _053_
*80 _054_
*81 _055_
*82 _056_
*83 _057_
*84 _058_
*85 _059_
*86 _060_
*87 _061_
*88 _062_
*89 _063_
*90 _064_
*91 _065_
*92 _066_
*93 _067_
*94 _068_
*95 _069_
*96 _070_
*97 _071_
*98 _072_
*99 _073_
*100 _074_
*101 _075_
*102 _076_
*103 _077_
*104 clknet_0_clk
*105 clknet_2_0__leaf_clk
*106 clknet_2_1__leaf_clk
*107 clknet_2_2__leaf_clk
*108 clknet_2_3__leaf_clk
*109 net1
*110 net10
*111 net11
*112 net12
*113 net13
*114 net14
*115 net15
*116 net16
*117 net17
*118 net18
*119 net19
*120 net2
*121 net20
*122 net21
*123 net22
*124 net23
*125 net24
*126 net25
*127 net26
*128 net27
*129 net28
*130 net29
*131 net3
*132 net30
*133 net31
*134 net32
*135 net33
*136 net34
*137 net35
*138 net36
*139 net37
*140 net38
*141 net39
*142 net4
*143 net40
*144 net41
*145 net42
*146 net43
*147 net44
*148 net45
*149 net46
*150 net47
*151 net48
*152 net49
*153 net5
*154 net50
*155 net51
*156 net52
*157 net53
*158 net54
*159 net55
*160 net56
*161 net57
*162 net58
*163 net59
*164 net6
*165 net60
*166 net61
*167 net7
*168 net8
*169 net9
*170 rx_bit_cnt\[0\]
*171 rx_bit_cnt\[1\]
*172 rx_bit_cnt\[2\]
*173 rx_busy
*174 rx_shift_reg\[0\]
*175 rx_shift_reg\[1\]
*176 rx_shift_reg\[2\]
*177 rx_shift_reg\[3\]
*178 rx_shift_reg\[4\]
*179 rx_shift_reg\[5\]
*180 rx_shift_reg\[6\]
*181 rx_shift_reg\[7\]
*182 tx_bit_cnt\[0\]
*183 tx_bit_cnt\[1\]
*184 tx_bit_cnt\[2\]
*185 tx_busy
*186 tx_shift_reg\[0\]
*187 tx_shift_reg\[1\]
*188 tx_shift_reg\[2\]
*189 tx_shift_reg\[3\]
*190 tx_shift_reg\[4\]
*191 tx_shift_reg\[5\]
*192 tx_shift_reg\[6\]
*193 tx_shift_reg\[7\]
*194 FILLER_0_0_104
*195 FILLER_0_0_15
*196 FILLER_0_0_27
*197 FILLER_0_0_29
*198 FILLER_0_0_3
*199 FILLER_0_0_42
*200 FILLER_0_0_72
*201 FILLER_0_0_81
*202 FILLER_0_0_92
*203 FILLER_0_10_108
*204 FILLER_0_10_15
*205 FILLER_0_10_19
*206 FILLER_0_10_25
*207 FILLER_0_10_29
*208 FILLER_0_10_3
*209 FILLER_0_10_46
*210 FILLER_0_10_70
*211 FILLER_0_10_76
*212 FILLER_0_11_109
*213 FILLER_0_11_30
*214 FILLER_0_11_50
*215 FILLER_0_11_57
*216 FILLER_0_11_6
*217 FILLER_0_12_109
*218 FILLER_0_12_33
*219 FILLER_0_12_58
*220 FILLER_0_12_6
*221 FILLER_0_12_69
*222 FILLER_0_12_75
*223 FILLER_0_12_83
*224 FILLER_0_13_11
*225 FILLER_0_13_3
*226 FILLER_0_13_43
*227 FILLER_0_13_54
*228 FILLER_0_13_57
*229 FILLER_0_13_69
*230 FILLER_0_13_81
*231 FILLER_0_13_93
*232 FILLER_0_14_105
*233 FILLER_0_14_49
*234 FILLER_0_14_56
*235 FILLER_0_14_6
*236 FILLER_0_14_68
*237 FILLER_0_14_75
*238 FILLER_0_15_10
*239 FILLER_0_15_107
*240 FILLER_0_15_35
*241 FILLER_0_15_54
*242 FILLER_0_15_6
*243 FILLER_0_16_109
*244 FILLER_0_16_3
*245 FILLER_0_16_58
*246 FILLER_0_17_107
*247 FILLER_0_17_15
*248 FILLER_0_17_3
*249 FILLER_0_17_42
*250 FILLER_0_17_55
*251 FILLER_0_17_65
*252 FILLER_0_17_99
*253 FILLER_0_18_109
*254 FILLER_0_18_15
*255 FILLER_0_18_27
*256 FILLER_0_18_29
*257 FILLER_0_18_3
*258 FILLER_0_18_34
*259 FILLER_0_18_46
*260 FILLER_0_18_71
*261 FILLER_0_18_83
*262 FILLER_0_18_85
*263 FILLER_0_18_97
*264 FILLER_0_1_15
*265 FILLER_0_1_27
*266 FILLER_0_1_3
*267 FILLER_0_1_44
*268 FILLER_0_2_109
*269 FILLER_0_2_15
*270 FILLER_0_2_29
*271 FILLER_0_2_3
*272 FILLER_0_2_48
*273 FILLER_0_2_83
*274 FILLER_0_3_100
*275 FILLER_0_3_109
*276 FILLER_0_3_11
*277 FILLER_0_3_3
*278 FILLER_0_3_57
*279 FILLER_0_4_3
*280 FILLER_0_4_37
*281 FILLER_0_4_46
*282 FILLER_0_4_64
*283 FILLER_0_4_75
*284 FILLER_0_4_9
*285 FILLER_0_4_90
*286 FILLER_0_5_109
*287 FILLER_0_5_3
*288 FILLER_0_5_50
*289 FILLER_0_5_64
*290 FILLER_0_5_9
*291 FILLER_0_6_105
*292 FILLER_0_6_25
*293 FILLER_0_6_3
*294 FILLER_0_6_60
*295 FILLER_0_6_93
*296 FILLER_0_7_6
*297 FILLER_0_8_108
*298 FILLER_0_8_20
*299 FILLER_0_8_3
*300 FILLER_0_8_45
*301 FILLER_0_9_15
*302 FILLER_0_9_3
*303 FILLER_0_9_38
*304 FILLER_0_9_46
*305 FILLER_0_9_53
*306 FILLER_0_9_90
*307 FILLER_0_9_99
*308 PHY_EDGE_ROW_0_Left_19
*309 PHY_EDGE_ROW_0_Right_0
*310 PHY_EDGE_ROW_10_Left_29
*311 PHY_EDGE_ROW_10_Right_10
*312 PHY_EDGE_ROW_11_Left_30
*313 PHY_EDGE_ROW_11_Right_11
*314 PHY_EDGE_ROW_12_Left_31
*315 PHY_EDGE_ROW_12_Right_12
*316 PHY_EDGE_ROW_13_Left_32
*317 PHY_EDGE_ROW_13_Right_13
*318 PHY_EDGE_ROW_14_Left_33
*319 PHY_EDGE_ROW_14_Right_14
*320 PHY_EDGE_ROW_15_Left_34
*321 PHY_EDGE_ROW_15_Right_15
*322 PHY_EDGE_ROW_16_Left_35
*323 PHY_EDGE_ROW_16_Right_16
*324 PHY_EDGE_ROW_17_Left_36
*325 PHY_EDGE_ROW_17_Right_17
*326 PHY_EDGE_ROW_18_Left_37
*327 PHY_EDGE_ROW_18_Right_18
*328 PHY_EDGE_ROW_1_Left_20
*329 PHY_EDGE_ROW_1_Right_1
*330 PHY_EDGE_ROW_2_Left_21
*331 PHY_EDGE_ROW_2_Right_2
*332 PHY_EDGE_ROW_3_Left_22
*333 PHY_EDGE_ROW_3_Right_3
*334 PHY_EDGE_ROW_4_Left_23
*335 PHY_EDGE_ROW_4_Right_4
*336 PHY_EDGE_ROW_5_Left_24
*337 PHY_EDGE_ROW_5_Right_5
*338 PHY_EDGE_ROW_6_Left_25
*339 PHY_EDGE_ROW_6_Right_6
*340 PHY_EDGE_ROW_7_Left_26
*341 PHY_EDGE_ROW_7_Right_7
*342 PHY_EDGE_ROW_8_Left_27
*343 PHY_EDGE_ROW_8_Right_8
*344 PHY_EDGE_ROW_9_Left_28
*345 PHY_EDGE_ROW_9_Right_9
*346 TAP_TAPCELL_ROW_0_38
*347 TAP_TAPCELL_ROW_0_39
*348 TAP_TAPCELL_ROW_0_40
*349 TAP_TAPCELL_ROW_10_54
*350 TAP_TAPCELL_ROW_10_55
*351 TAP_TAPCELL_ROW_11_56
*352 TAP_TAPCELL_ROW_12_57
*353 TAP_TAPCELL_ROW_12_58
*354 TAP_TAPCELL_ROW_13_59
*355 TAP_TAPCELL_ROW_14_60
*356 TAP_TAPCELL_ROW_14_61
*357 TAP_TAPCELL_ROW_15_62
*358 TAP_TAPCELL_ROW_16_63
*359 TAP_TAPCELL_ROW_16_64
*360 TAP_TAPCELL_ROW_17_65
*361 TAP_TAPCELL_ROW_18_66
*362 TAP_TAPCELL_ROW_18_67
*363 TAP_TAPCELL_ROW_18_68
*364 TAP_TAPCELL_ROW_1_41
*365 TAP_TAPCELL_ROW_2_42
*366 TAP_TAPCELL_ROW_2_43
*367 TAP_TAPCELL_ROW_3_44
*368 TAP_TAPCELL_ROW_4_45
*369 TAP_TAPCELL_ROW_4_46
*370 TAP_TAPCELL_ROW_5_47
*371 TAP_TAPCELL_ROW_6_48
*372 TAP_TAPCELL_ROW_6_49
*373 TAP_TAPCELL_ROW_7_50
*374 TAP_TAPCELL_ROW_8_51
*375 TAP_TAPCELL_ROW_8_52
*376 TAP_TAPCELL_ROW_9_53
*377 _078_
*378 _079_
*379 _080_
*380 _081_
*381 _082_
*382 _083_
*383 _084_
*384 _085_
*385 _086_
*386 _087_
*387 _088_
*388 _089_
*389 _090_
*390 _091_
*391 _092_
*392 _093_
*393 _094_
*394 _095_
*395 _096_
*396 _097_
*397 _098_
*398 _099_
*399 _100_
*400 _101_
*401 _102_
*402 _103_
*403 _104_
*404 _105_
*405 _106_
*406 _107_
*407 _108_
*408 _109_
*409 _110_
*410 _111_
*411 _112_
*412 _113_
*413 _114_
*414 _115_
*415 _116_
*416 _117_
*417 _118_
*418 _119_
*419 _120_
*420 _121_
*421 _122_
*422 _123_
*423 _124_
*424 _125_
*425 _126_
*426 _127_
*427 _128_
*428 _129_
*429 _130_
*430 _131_
*431 _132_
*432 _133_
*433 _134_
*434 _135_
*435 _136_
*436 _137_
*437 _138_
*438 _139_
*439 _140_
*440 _141_
*441 _142_
*442 _143_
*443 _144_
*444 _145_
*445 _146_
*446 _147_
*447 _148_
*448 _149_
*449 _150_
*450 _151_
*451 _152_
*452 _153_
*453 _154_
*454 _155_
*455 _156_
*456 _157_
*457 _158_
*458 _159_
*459 _160_
*460 _161_
*461 _162_
*462 _163_
*463 _164_
*464 _165_
*465 _166_
*466 _167_
*467 _168_
*468 _169_
*469 _170_
*470 _171_
*471 _172_
*472 _173_
*473 _174_
*474 _175_
*475 _176_
*476 _177_
*477 _178_
*478 _179_
*479 _180_
*480 _181_
*481 _182_
*482 _183_
*483 _184_
*484 _185_
*485 _186_
*486 _187_
*487 _188_
*488 _189_
*489 clkbuf_0_clk
*490 clkbuf_2_0__f_clk
*491 clkbuf_2_1__f_clk
*492 clkbuf_2_2__f_clk
*493 clkbuf_2_3__f_clk
*494 clkload0
*495 clkload1
*496 clkload2
*497 hold1
*498 hold10
*499 hold11
*500 hold12
*501 hold13
*502 hold14
*503 hold15
*504 hold16
*505 hold17
*506 hold18
*507 hold19
*508 hold2
*509 hold20
*510 hold21
*511 hold22
*512 hold23
*513 hold24
*514 hold25
*515 hold26
*516 hold27
*517 hold28
*518 hold29
*519 hold3
*520 hold30
*521 hold31
*522 hold32
*523 hold33
*524 hold34
*525 hold35
*526 hold36
*527 hold37
*528 hold38
*529 hold39
*530 hold4
*531 hold5
*532 hold6
*533 hold7
*534 hold8
*535 hold9
*536 input1
*537 input10
*538 input11
*539 input12
*540 input2
*541 input3
*542 input4
*543 input5
*544 input6
*545 input7
*546 input8
*547 input9
*548 output13
*549 output14
*550 output15
*551 output16
*552 output17
*553 output18
*554 output19
*555 output20
*556 output21
*557 output22

*PORTS
Rx I
Tx O
busy O
clk I
enable I
receive I
rx_data[0] O
rx_data[1] O
rx_data[2] O
rx_data[3] O
rx_data[4] O
rx_data[5] O
rx_data[6] O
rx_data[7] O
send I
tx_data[0] I
tx_data[1] I
tx_data[2] I
tx_data[3] I
tx_data[4] I
tx_data[5] I
tx_data[6] I
tx_data[7] I

*D_NET *1 0.00096216
*CONN
*P Rx I
*I *536:A I *D sky130_fd_sc_hd__clkbuf_1
*CAP
1 Rx 0.000237354
2 *536:A 0.000237354
3 *536:A rx_data[7] 6.67198e-05
4 *536:A *509:A 0.00016303
5 *536:A *532:A 0.000187609
6 *536:A *540:A 7.0094e-05
*RES
1 Rx *536:A 20.3199 
*END

*D_NET *2 0.00143348
*CONN
*P Tx O
*I *548:X O *D sky130_fd_sc_hd__buf_1
*CAP
1 Tx 0.00055377
2 *548:X 0.00055377
3 Tx busy 0.000117133
4 Tx *512:A 0.000208804
5 Tx *548:A 0
*RES
1 *548:X Tx 23.7855 
*END

*D_NET *5 0.00210292
*CONN
*P busy O
*I *549:X O *D sky130_fd_sc_hd__buf_1
*CAP
1 busy 0.000742257
2 *549:X 0.000742257
3 busy *435:A1 0.00030558
4 busy *512:A 0
5 busy *541:A 9.54485e-05
6 busy *548:A 0.000100248
7 Tx busy 0.000117133
*RES
1 *549:X busy 25.8059 
*END

*D_NET *6 0.00727285
*CONN
*P clk I
*I *489:A I *D sky130_fd_sc_hd__clkbuf_16
*CAP
1 clk 0.0035859
2 *489:A 0.0035859
3 *489:A *383:A 6.91224e-05
4 *489:A *537:A 3.19385e-05
5 *489:A *547:A 0
*RES
1 clk *489:A 32.5268 
*END

*D_NET *7 0.000756506
*CONN
*P enable I
*I *540:A I *D sky130_fd_sc_hd__dlymetal6s2s_1
*CAP
1 enable 0.000307019
2 *540:A 0.000307019
3 *540:A *541:A 7.23736e-05
4 *536:A *540:A 7.0094e-05
*RES
1 enable *540:A 20.0163 
*END

*D_NET *8 0.00104769
*CONN
*P receive I
*I *541:A I *D sky130_fd_sc_hd__buf_1
*CAP
1 receive 0.0004039
2 *541:A 0.0004039
3 *541:A *512:A 7.20683e-05
4 *541:A *171:14 0
5 busy *541:A 9.54485e-05
6 *540:A *541:A 7.23736e-05
*RES
1 receive *541:A 22.6771 
*END

*D_NET *9 0.000810554
*CONN
*P rx_data[0] O
*I *550:X O *D sky130_fd_sc_hd__buf_1
*CAP
1 rx_data[0] 0.000405277
2 *550:X 0.000405277
*RES
1 *550:X rx_data[0] 21.2286 
*END

*D_NET *10 0.000666516
*CONN
*P rx_data[1] O
*I *551:X O *D sky130_fd_sc_hd__buf_1
*CAP
1 rx_data[1] 0.000333258
2 *551:X 0.000333258
*RES
1 *551:X rx_data[1] 20.7838 
*END

*D_NET *11 0.00101208
*CONN
*P rx_data[2] O
*I *552:X O *D sky130_fd_sc_hd__buf_1
*CAP
1 rx_data[2] 0.000457168
2 *552:X 0.000457168
3 rx_data[2] rx_data[3] 0
4 rx_data[2] *552:A 9.77414e-05
5 rx_data[2] *99:18 0
*RES
1 *552:X rx_data[2] 22.3 
*END

*D_NET *12 0.00126843
*CONN
*P rx_data[3] O
*I *553:X O *D sky130_fd_sc_hd__buf_1
*CAP
1 rx_data[3] 0.000464349
2 *553:X 0.000464349
3 rx_data[3] *483:D 7.29712e-05
4 rx_data[3] *500:A 0
5 rx_data[3] *99:18 0.000115373
6 rx_data[3] *99:20 1.21832e-05
7 rx_data[3] *99:37 0.000139202
8 rx_data[2] rx_data[3] 0
*RES
1 *553:X rx_data[3] 23.7821 
*END

*D_NET *13 0.00224465
*CONN
*P rx_data[4] O
*I *554:X O *D sky130_fd_sc_hd__buf_1
*CAP
1 rx_data[4] 0.00058019
2 *554:X 0.00058019
3 rx_data[4] *414:A2 9.60939e-05
4 rx_data[4] *414:B2 2.14757e-05
5 rx_data[4] *485:D 0.000223891
6 rx_data[4] *554:A 0.000353183
7 rx_data[4] *99:12 0.000170654
8 rx_data[4] *119:12 0.000218976
*RES
1 *554:X rx_data[4] 27.3714 
*END

*D_NET *14 0.00147793
*CONN
*P rx_data[5] O
*I *555:X O *D sky130_fd_sc_hd__buf_1
*CAP
1 rx_data[5] 0.000611845
2 *555:X 0.000611845
3 rx_data[5] rx_data[6] 7.23736e-05
4 rx_data[5] *415:A1 3.84349e-05
5 rx_data[5] *501:A 0
6 rx_data[5] *556:A 0.000143427
*RES
1 *555:X rx_data[5] 21.1987 
*END

*D_NET *15 0.00105951
*CONN
*P rx_data[6] O
*I *556:X O *D sky130_fd_sc_hd__buf_1
*CAP
1 rx_data[6] 0.000419547
2 *556:X 0.000419547
3 rx_data[6] rx_data[7] 0
4 rx_data[6] *501:A 0.000125699
5 rx_data[6] *531:A 2.23393e-05
6 rx_data[5] rx_data[6] 7.23736e-05
*RES
1 *556:X rx_data[6] 22.4449 
*END

*D_NET *16 0.000945948
*CONN
*P rx_data[7] O
*I *557:X O *D sky130_fd_sc_hd__buf_1
*CAP
1 rx_data[7] 0.000382725
2 *557:X 0.000382725
3 rx_data[7] *532:A 0.000113778
4 rx_data[6] rx_data[7] 0
5 *536:A rx_data[7] 6.67198e-05
*RES
1 *557:X rx_data[7] 21.2306 
*END

*D_NET *17 0.00089348
*CONN
*P send I
*I *542:A I *D sky130_fd_sc_hd__dlymetal6s2s_1
*CAP
1 send 0.00043262
2 *542:A 0.00043262
3 *542:A *543:A 0
4 *542:A *92:16 2.82405e-05
*RES
1 send *542:A 22.5679 
*END

*D_NET *18 0.00134324
*CONN
*P tx_data[0] I
*I *543:A I *D sky130_fd_sc_hd__clkbuf_1
*CAP
1 tx_data[0] 0.000483746
2 *543:A 0.000483746
3 *543:A *455:A2 0.000227713
4 *543:A *544:A 0
5 *543:A *92:16 2.84398e-05
6 *543:A *142:10 0.000119599
7 *542:A *543:A 0
*RES
1 tx_data[0] *543:A 24.5143 
*END

*D_NET *19 0.00110537
*CONN
*P tx_data[1] I
*I *544:A I *D sky130_fd_sc_hd__clkbuf_1
*CAP
1 tx_data[1] 0.000476292
2 *544:A 0.000476292
3 *544:A *427:A 0
4 *544:A *428:A 0.000143633
5 *544:A *455:B1 9.15842e-06
6 *544:A *539:A 0
7 *544:A *92:16 0
8 *543:A *544:A 0
*RES
1 tx_data[1] *544:A 23.5679 
*END

*D_NET *20 0.000606498
*CONN
*P tx_data[2] I
*I *545:A I *D sky130_fd_sc_hd__clkbuf_1
*CAP
1 tx_data[2] 0.000277567
2 *545:A 0.000277567
3 *545:A *546:A 2.25951e-05
4 *545:A *547:A 2.87684e-05
*RES
1 tx_data[2] *545:A 20.7838 
*END

*D_NET *21 0.000556441
*CONN
*P tx_data[3] I
*I *546:A I *D sky130_fd_sc_hd__clkbuf_1
*CAP
1 tx_data[3] 0.000266923
2 *546:A 0.000266923
3 *546:A *547:A 0
4 *545:A *546:A 2.25951e-05
*RES
1 tx_data[3] *546:A 19.0336 
*END

*D_NET *22 0.000666932
*CONN
*P tx_data[4] I
*I *547:A I *D sky130_fd_sc_hd__clkbuf_1
*CAP
1 tx_data[4] 0.000307784
2 *547:A 0.000307784
3 *547:A *537:A 2.25951e-05
4 *489:A *547:A 0
5 *545:A *547:A 2.87684e-05
6 *546:A *547:A 0
*RES
1 tx_data[4] *547:A 19.9443 
*END

*D_NET *23 0.000660704
*CONN
*P tx_data[5] I
*I *537:A I *D sky130_fd_sc_hd__clkbuf_1
*CAP
1 tx_data[5] 0.000303085
2 *537:A 0.000303085
3 *489:A *537:A 3.19385e-05
4 *547:A *537:A 2.25951e-05
*RES
1 tx_data[5] *537:A 21.391 
*END

*D_NET *24 0.00102845
*CONN
*P tx_data[6] I
*I *538:A I *D sky130_fd_sc_hd__clkbuf_1
*CAP
1 tx_data[6] 0.000498672
2 *538:A 0.000498672
3 *538:A *403:A1 3.11088e-05
*RES
1 tx_data[6] *538:A 23.5679 
*END

*D_NET *25 0.00112429
*CONN
*P tx_data[7] I
*I *539:A I *D sky130_fd_sc_hd__clkbuf_1
*CAP
1 tx_data[7] 0.000519062
2 *539:A 0.000519062
3 *539:A *427:A 7.92226e-05
4 *539:A *429:C1 6.94399e-06
5 *544:A *539:A 0
*RES
1 tx_data[7] *539:A 23.9786 
*END

*D_NET *26 0.000909149
*CONN
*I *456:D I *D sky130_fd_sc_hd__dfxtp_1
*I *385:X O *D sky130_fd_sc_hd__and2_1
*CAP
1 *456:D 0.000155996
2 *385:X 0.000155996
3 *456:D *383:B 4.87669e-06
4 *456:D *388:B 0.00034263
5 *456:D *391:A 5.66971e-05
6 *456:D *456:CLK 1.64343e-05
7 *456:D *90:10 0.00017652
*RES
1 *385:X *456:D 32.6759 
*END

*D_NET *27 0.000781917
*CONN
*I *457:D I *D sky130_fd_sc_hd__dfxtp_1
*I *388:X O *D sky130_fd_sc_hd__and2_1
*CAP
1 *457:D 0.000390958
2 *388:X 0.000390958
*RES
1 *388:X *457:D 24.1045 
*END

*D_NET *28 0.00108512
*CONN
*I *458:D I *D sky130_fd_sc_hd__dfxtp_1
*I *391:X O *D sky130_fd_sc_hd__and2_1
*CAP
1 *458:D 0.000298582
2 *391:X 0.000298582
3 *458:D *391:B 0.000218611
4 *458:D *394:B1 0.000246035
5 *458:D *457:CLK 0
6 *458:D *63:85 2.33087e-05
*RES
1 *391:X *458:D 33.908 
*END

*D_NET *29 0.000452959
*CONN
*I *459:D I *D sky130_fd_sc_hd__dfxtp_1
*I *395:X O *D sky130_fd_sc_hd__and2_1
*CAP
1 *459:D 0.000163965
2 *395:X 0.000163965
3 *459:D *394:A1 4.48647e-05
4 *459:D *459:CLK 6.08993e-05
5 *459:D *99:103 1.92656e-05
*RES
1 *395:X *459:D 30.9438 
*END

*D_NET *30 0.000487603
*CONN
*I *460:D I *D sky130_fd_sc_hd__dfxtp_1
*I *398:X O *D sky130_fd_sc_hd__and2_1
*CAP
1 *460:D 0.000226843
2 *398:X 0.000226843
3 *460:D *390:A1 1.74816e-05
4 *460:D *460:CLK 1.64343e-05
*RES
1 *398:X *460:D 30.9616 
*END

*D_NET *31 0.000774454
*CONN
*I *461:D I *D sky130_fd_sc_hd__dfxtp_1
*I *401:X O *D sky130_fd_sc_hd__and2_1
*CAP
1 *461:D 0.000149112
2 *401:X 0.000149112
3 *461:D *397:A1 5.68713e-05
4 *461:D *400:A1 0.000143447
5 *461:D *404:A 0.000149543
6 *461:D *461:CLK 4.59348e-05
7 *461:D *462:CLK 8.04343e-05
*RES
1 *401:X *461:D 31.4795 
*END

*D_NET *32 0.00041234
*CONN
*I *462:D I *D sky130_fd_sc_hd__dfxtp_1
*I *404:X O *D sky130_fd_sc_hd__and2_1
*CAP
1 *462:D 0.000142547
2 *404:X 0.000142547
3 *462:D *462:CLK 0.000127246
*RES
1 *404:X *462:D 30.4036 
*END

*D_NET *33 0.00136142
*CONN
*I *463:D I *D sky130_fd_sc_hd__dfxtp_2
*I *408:X O *D sky130_fd_sc_hd__and2b_1
*CAP
1 *463:D 0.000275828
2 *408:X 0.000275828
3 *463:D *408:B 0
4 *463:D *63:81 0.000440374
5 *463:D *65:16 8.7892e-05
6 *463:D *88:18 0.000272338
7 *463:D *106:35 9.15842e-06
*RES
1 *408:X *463:D 35.4214 
*END

*D_NET *34 0.00058903
*CONN
*I *508:A I *D sky130_fd_sc_hd__dlygate4sd3_1
*I *410:X O *D sky130_fd_sc_hd__a22o_1
*CAP
1 *508:A 0.000162829
2 *410:X 0.000162829
3 *508:A *410:B2 5.65955e-05
4 *508:A *443:A1 9.83442e-05
5 *508:A *443:A2 1.00887e-05
6 *508:A *443:B2 9.83442e-05
*RES
1 *410:X *508:A 30.725 
*END

*D_NET *35 0.00131631
*CONN
*I *534:A I *D sky130_fd_sc_hd__dlygate4sd3_1
*I *411:X O *D sky130_fd_sc_hd__a22o_1
*CAP
1 *534:A 0.000367156
2 *411:X 0.000367156
3 *534:A *411:A2 6.71327e-05
4 *534:A *457:CLK 0.000190123
5 *534:A *465:D 5.50052e-05
6 *534:A *529:A 0.00026974
*RES
1 *411:X *534:A 26.1536 
*END

*D_NET *36 0.000541354
*CONN
*I *504:A I *D sky130_fd_sc_hd__dlygate4sd3_1
*I *412:X O *D sky130_fd_sc_hd__a22o_1
*CAP
1 *504:A 0.000137746
2 *412:X 0.000137746
3 *504:A *412:B1 0.000209165
4 *504:A *106:35 5.66971e-05
*RES
1 *412:X *504:A 22.0286 
*END

*D_NET *37 0.00164995
*CONN
*I *500:A I *D sky130_fd_sc_hd__dlygate4sd3_1
*I *413:X O *D sky130_fd_sc_hd__a22o_1
*CAP
1 *500:A 0.000482234
2 *413:X 0.000482234
3 *500:A *413:B2 0.000227971
4 *500:A *467:CLK 0.000146853
5 *500:A *467:D 7.88776e-05
6 *500:A *483:D 0
7 *500:A *550:A 2.36909e-05
8 *500:A *65:43 7.62237e-05
9 *500:A *66:67 5.01655e-05
10 *500:A *105:47 5.5764e-05
11 *500:A *105:64 2.59355e-05
12 rx_data[3] *500:A 0
*RES
1 *413:X *500:A 38.475 
*END

*D_NET *38 0.000525476
*CONN
*I *530:A I *D sky130_fd_sc_hd__dlygate4sd3_1
*I *414:X O *D sky130_fd_sc_hd__a22o_1
*CAP
1 *530:A 0.000109197
2 *414:X 0.000109197
3 *530:A *446:B 0.000128518
4 *530:A *484:D 5.17614e-05
5 *530:A *552:A 0.000126803
*RES
1 *414:X *530:A 30.1893 
*END

*D_NET *39 0.00164646
*CONN
*I *502:A I *D sky130_fd_sc_hd__dlygate4sd3_1
*I *415:X O *D sky130_fd_sc_hd__a22o_1
*CAP
1 *502:A 0.000517195
2 *415:X 0.000517195
3 *502:A *415:A1 0.000221469
4 *502:A *469:D 5.7298e-05
5 *502:A *470:D 1.03904e-05
6 *502:A *498:A 2.73164e-05
7 *502:A *106:68 0.000199782
8 *502:A *106:80 9.58126e-05
*RES
1 *415:X *502:A 36.3143 
*END

*D_NET *40 0.00140154
*CONN
*I *498:A I *D sky130_fd_sc_hd__dlygate4sd3_1
*I *416:X O *D sky130_fd_sc_hd__a22o_1
*CAP
1 *498:A 0.000486941
2 *416:X 0.000486941
3 *498:A *416:A1 5.46893e-05
4 *498:A *416:B2 0
5 *498:A *470:D 0.000175281
6 *498:A *106:68 2.69483e-05
7 *498:A *128:24 0.000143427
8 *502:A *498:A 2.73164e-05
*RES
1 *416:X *498:A 37.225 
*END

*D_NET *41 0.00306265
*CONN
*I *532:A I *D sky130_fd_sc_hd__dlygate4sd3_1
*I *417:X O *D sky130_fd_sc_hd__a22o_1
*CAP
1 *532:A 0.00100675
2 *417:X 0.00100675
3 *532:A *433:B 1.4796e-05
4 *532:A *437:A1 1.84776e-05
5 *532:A *438:C1 0.000182806
6 *532:A *479:CLK 2.59355e-05
7 *532:A *479:D 5.7298e-05
8 *532:A *509:A 3.1469e-05
9 *532:A *88:63 0.000185403
10 *532:A *171:29 0.000146767
11 *532:A *171:35 8.10737e-06
12 *532:A *172:10 7.67049e-05
13 rx_data[7] *532:A 0.000113778
14 *536:A *532:A 0.000187609
*RES
1 *417:X *532:A 47.85 
*END

*D_NET *42 0.000848616
*CONN
*I *472:D I *D sky130_fd_sc_hd__dfxtp_1
*I *419:X O *D sky130_fd_sc_hd__o211a_1
*CAP
1 *472:D 0.000211429
2 *419:X 0.000211429
3 *472:D *420:B 6.05139e-05
4 *472:D *422:C1 0
5 *472:D *90:73 8.39917e-05
6 *472:D *90:96 7.47942e-05
7 *472:D *108:60 0.000147142
8 *472:D *183:20 5.93177e-05
*RES
1 *419:X *472:D 33.0687 
*END

*D_NET *43 6.39194e-05
*CONN
*I *511:A I *D sky130_fd_sc_hd__dlygate4sd3_1
*I *422:X O *D sky130_fd_sc_hd__o211a_1
*CAP
1 *511:A 3.19597e-05
2 *422:X 3.19597e-05
*RES
1 *422:X *511:A 19.1357 
*END

*D_NET *44 0.000879899
*CONN
*I *474:D I *D sky130_fd_sc_hd__dfxtp_1
*I *426:X O *D sky130_fd_sc_hd__o221a_1
*CAP
1 *474:D 0.000212381
2 *426:X 0.000212381
3 *474:D *419:C1 0.000170762
4 *474:D *423:C1 5.91935e-05
5 *474:D *108:84 0.000225182
*RES
1 *426:X *474:D 32.0687 
*END

*D_NET *45 0.000870075
*CONN
*I *475:D I *D sky130_fd_sc_hd__dfxtp_1
*I *429:X O *D sky130_fd_sc_hd__o2111a_1
*CAP
1 *475:D 0.000362793
2 *429:X 0.000362793
3 *475:D *429:B1 0
4 *475:D *185:23 0.00014449
*RES
1 *429:X *475:D 33.5866 
*END

*D_NET *46 0.00153595
*CONN
*I *476:D I *D sky130_fd_sc_hd__dfxtp_1
*I *430:X O *D sky130_fd_sc_hd__and3_1
*CAP
1 *476:D 0.000604186
2 *430:X 0.000604186
3 *476:D *380:A 9.33978e-07
4 *476:D *431:A1 3.62193e-05
5 *476:D *433:A 7.27282e-05
6 *476:D *433:B 3.79877e-06
7 *476:D *434:A2 1.13883e-05
8 *476:D *476:CLK 7.62323e-05
9 *476:D *88:125 0
10 *476:D *108:14 0.000126278
*RES
1 *430:X *476:D 36.8187 
*END

*D_NET *47 0.00110488
*CONN
*I *477:D I *D sky130_fd_sc_hd__dfxtp_1
*I *432:X O *D sky130_fd_sc_hd__o211a_1
*CAP
1 *477:D 0.000300343
2 *432:X 0.000300343
3 *477:D *435:B1 0.000169563
4 *477:D *435:C1 2.34204e-05
5 *477:D *478:CLK 6.8646e-06
6 *477:D *478:D 5.33882e-05
7 *477:D *88:116 0
8 *477:D *88:125 0
9 *477:D *131:22 9.76206e-05
10 *477:D *150:14 0.000149637
11 *477:D *170:10 0
12 *477:D *170:35 3.69839e-06
*RES
1 *432:X *477:D 33.908 
*END

*D_NET *48 0.00120925
*CONN
*I *513:A I *D sky130_fd_sc_hd__dlygate4sd3_1
*I *435:X O *D sky130_fd_sc_hd__o211a_1
*CAP
1 *513:A 0.00033337
2 *435:X 0.00033337
3 *513:A *406:B 0.000244121
4 *513:A *120:18 0.000222509
5 *513:A *171:14 7.58841e-05
*RES
1 *435:X *513:A 33.85 
*END

*D_NET *49 0.000349289
*CONN
*I *479:D I *D sky130_fd_sc_hd__dfxtp_1
*I *438:X O *D sky130_fd_sc_hd__o211a_1
*CAP
1 *479:D 9.511e-05
2 *438:X 9.511e-05
3 *479:D *478:D 0.000101771
4 *532:A *479:D 5.7298e-05
*RES
1 *438:X *479:D 29.5152 
*END

*D_NET *50 0.000290213
*CONN
*I *480:D I *D sky130_fd_sc_hd__dfxtp_1
*I *440:X O *D sky130_fd_sc_hd__and2_1
*CAP
1 *480:D 0.000118034
2 *440:X 0.000118034
3 *480:D *88:20 0
4 *480:D *105:21 5.41457e-05
*RES
1 *440:X *480:D 29.7473 
*END

*D_NET *51 0.000544632
*CONN
*I *481:D I *D sky130_fd_sc_hd__dfxtp_1
*I *442:X O *D sky130_fd_sc_hd__and2_1
*CAP
1 *481:D 0.00015442
2 *442:X 0.00015442
3 *481:D *551:A 0.000189422
4 *481:D *88:20 4.63699e-05
*RES
1 *442:X *481:D 30.7473 
*END

*D_NET *52 0.00120895
*CONN
*I *482:D I *D sky130_fd_sc_hd__dfxtp_1
*I *444:X O *D sky130_fd_sc_hd__and2_1
*CAP
1 *482:D 0.000413917
2 *444:X 0.000413917
3 *482:D *412:B2 0
4 *482:D *444:B 0.00022188
5 *482:D *482:CLK 0.000102589
6 *482:D *99:37 5.6647e-05
7 *482:D *105:45 0
8 *482:D *105:89 0
*RES
1 *444:X *482:D 35.9259 
*END

*D_NET *53 0.00073509
*CONN
*I *483:D I *D sky130_fd_sc_hd__dfxtp_1
*I *446:X O *D sky130_fd_sc_hd__and2_1
*CAP
1 *483:D 0.00021671
2 *446:X 0.00021671
3 *483:D *66:67 1.64343e-05
4 *483:D *99:37 0.00019583
5 *483:D *105:64 1.64343e-05
6 rx_data[3] *483:D 7.29712e-05
7 *500:A *483:D 0
*RES
1 *446:X *483:D 32.0687 
*END

*D_NET *54 0.000743911
*CONN
*I *484:D I *D sky130_fd_sc_hd__dfxtp_1
*I *448:X O *D sky130_fd_sc_hd__and2_1
*CAP
1 *484:D 0.000235244
2 *448:X 0.000235244
3 *484:D *484:CLK 8.90234e-05
4 *484:D *552:A 0.000132638
5 *484:D *99:12 0
6 *530:A *484:D 5.17614e-05
*RES
1 *448:X *484:D 32.3679 
*END

*D_NET *55 0.00146974
*CONN
*I *485:D I *D sky130_fd_sc_hd__dfxtp_1
*I *450:X O *D sky130_fd_sc_hd__and2_1
*CAP
1 *485:D 0.000466538
2 *450:X 0.000466538
3 *485:D *415:A2 1.77011e-05
4 *485:D *554:A 1.64621e-05
5 *485:D *65:130 4.97635e-05
6 *485:D *65:140 0.000130717
7 *485:D *106:80 9.8126e-05
8 rx_data[4] *485:D 0.000223891
*RES
1 *450:X *485:D 35.1937 
*END

*D_NET *56 0.00140496
*CONN
*I *486:D I *D sky130_fd_sc_hd__dfxtp_1
*I *452:X O *D sky130_fd_sc_hd__and2_1
*CAP
1 *486:D 0.000514173
2 *452:X 0.000514173
3 *486:D *491:A 0.000295227
4 *486:D *552:A 2.06178e-05
5 *486:D *106:12 1.64343e-05
6 *486:D *120:32 4.43299e-05
*RES
1 *452:X *486:D 36.4262 
*END

*D_NET *57 0.00107381
*CONN
*I *487:D I *D sky130_fd_sc_hd__dfxtp_1
*I *454:X O *D sky130_fd_sc_hd__and2_1
*CAP
1 *487:D 0.000357717
2 *454:X 0.000357717
3 *487:D *451:B2 1.64343e-05
4 *487:D *453:B2 0
5 *487:D *454:A 7.0172e-05
6 *487:D *454:B 9.41642e-05
7 *487:D *491:A 2.06112e-05
8 *487:D *63:10 1.03904e-05
9 *487:D *63:14 0.000121054
10 *487:D *63:35 9.11048e-06
11 *487:D *63:65 1.64343e-05
*RES
1 *454:X *487:D 33.7116 
*END

*D_NET *58 0.00090836
*CONN
*I *488:D I *D sky130_fd_sc_hd__dfxtp_1
*I *455:X O *D sky130_fd_sc_hd__o21a_1
*CAP
1 *488:D 0.000228683
2 *455:X 0.000228683
3 *488:D *387:A1 0.000168036
4 *488:D *402:A 8.95895e-05
5 *488:D *428:A 5.50052e-05
6 *488:D *455:B1 3.87671e-05
7 *488:D *506:A 9.95963e-05
*RES
1 *455:X *488:D 33.3679 
*END

*D_NET *59 0.000360153
*CONN
*I *400:C1 I *D sky130_fd_sc_hd__a221o_1
*I *399:X O *D sky130_fd_sc_hd__and2_1
*CAP
1 *400:C1 6.07093e-05
2 *399:X 6.07093e-05
3 *400:C1 *396:A 8.00806e-05
4 *400:C1 *403:B1 4.34648e-05
5 *400:C1 *520:A 7.88765e-05
6 *400:C1 *92:82 3.63127e-05
*RES
1 *399:X *400:C1 29.5464 
*END

*D_NET *60 0.00168199
*CONN
*I *401:B I *D sky130_fd_sc_hd__and2_1
*I *400:X O *D sky130_fd_sc_hd__a221o_1
*CAP
1 *401:B 0.000236406
2 *400:X 0.000236406
3 *401:B *397:A1 0.000611457
4 *401:B *399:A 0.000146145
5 *401:B *401:A 4.10796e-05
6 *401:B *92:82 1.65558e-05
7 *401:B *185:53 0.000393943
*RES
1 *400:X *401:B 35.5464 
*END

*D_NET *61 0.000715754
*CONN
*I *403:C1 I *D sky130_fd_sc_hd__a221o_1
*I *402:X O *D sky130_fd_sc_hd__and2_1
*CAP
1 *403:C1 0.000230287
2 *402:X 0.000230287
3 *403:C1 *403:B1 5.84941e-05
4 *403:C1 *403:B2 0.000180485
5 *403:C1 *520:A 1.62025e-05
*RES
1 *402:X *403:C1 23.2607 
*END

*D_NET *62 0.00026021
*CONN
*I *404:B I *D sky130_fd_sc_hd__and2_1
*I *403:X O *D sky130_fd_sc_hd__a221o_1
*CAP
1 *404:B 0.000130105
2 *403:X 0.000130105
3 *404:B *403:B1 0
*RES
1 *403:X *404:B 20.8232 
*END

*D_NET *63 0.0158609
*CONN
*I *434:B1 I *D sky130_fd_sc_hd__a22o_1
*I *451:B1 I *D sky130_fd_sc_hd__a22o_1
*I *445:B1 I *D sky130_fd_sc_hd__a22o_1
*I *408:A_N I *D sky130_fd_sc_hd__and2b_1
*I *441:B1 I *D sky130_fd_sc_hd__a22o_1
*I *439:B1 I *D sky130_fd_sc_hd__a22o_1
*I *443:B1 I *D sky130_fd_sc_hd__a22o_1
*I *449:B1 I *D sky130_fd_sc_hd__a22o_1
*I *447:B1 I *D sky130_fd_sc_hd__a22o_1
*I *453:B1 I *D sky130_fd_sc_hd__a22o_1
*I *405:Y O *D sky130_fd_sc_hd__nor2_2
*CAP
1 *434:B1 0.000308062
2 *451:B1 0
3 *445:B1 9.14998e-05
4 *408:A_N 0
5 *441:B1 3.46071e-05
6 *439:B1 2.82756e-05
7 *443:B1 0.000212861
8 *449:B1 0
9 *447:B1 0.000587195
10 *453:B1 4.03246e-05
11 *405:Y 8.30299e-05
12 *63:93 0.000584044
13 *63:85 0.000762813
14 *63:81 0.000813829
15 *63:73 0.000652732
16 *63:65 0.000694507
17 *63:35 0.000940998
18 *63:14 0.000598028
19 *63:10 0.00115725
20 *63:8 0.000782632
21 *434:B1 *432:C1 6.31439e-05
22 *434:B1 *434:A2 0.000127447
23 *434:B1 *171:35 0.000170131
24 *439:B1 *105:8 5.65955e-05
25 *441:B1 *441:B2 5.46383e-06
26 *443:B1 *410:B1 0
27 *443:B1 *440:A 0.000182598
28 *443:B1 *443:A2 0.000194511
29 *443:B1 *494:A 0
30 *443:B1 *105:8 6.47568e-05
31 *445:B1 *445:A1 1.02504e-05
32 *445:B1 *491:A 2.09826e-05
33 *445:B1 *552:A 0
34 *445:B1 *99:12 5.01876e-06
35 *445:B1 *104:10 0.000136091
36 *445:B1 *173:20 2.26327e-05
37 *447:B1 *446:B 9.8126e-05
38 *447:B1 *447:A2 0.000101253
39 *447:B1 *447:B2 2.67407e-05
40 *447:B1 *448:B 5.33005e-05
41 *447:B1 *449:A2 0.000252302
42 *447:B1 *523:A 4.84159e-05
43 *447:B1 *552:A 9.8126e-05
44 *63:8 *433:B 5.93787e-06
45 *63:10 *417:A2 0.000219764
46 *63:10 *433:B 2.74352e-05
47 *63:10 *453:A1 7.12754e-05
48 *63:10 *487:CLK 5.51716e-05
49 *63:10 *65:118 9.96487e-05
50 *63:10 *171:35 2.45881e-05
51 *63:14 *453:A1 0.000176858
52 *63:14 *487:CLK 0.000101172
53 *63:14 *491:A 2.06112e-05
54 *63:35 *449:B2 5.37741e-06
55 *63:35 *453:B2 2.08015e-05
56 *63:35 *454:A 0.000388957
57 *63:65 *451:A1 2.05612e-05
58 *63:65 *451:B2 0.000365433
59 *63:73 *412:B1 4.99912e-05
60 *63:73 *451:A1 3.13993e-05
61 *63:73 *452:B 6.05161e-06
62 *63:81 *383:A 0.000359274
63 *63:81 *391:A 0.000118388
64 *63:81 *88:18 0.00015116
65 *63:81 *104:10 0.000222426
66 *63:81 *106:35 4.51556e-05
67 *63:81 *187:10 0.000124012
68 *63:85 *391:A 3.18747e-05
69 *63:85 *391:B 0.000101982
70 *63:85 *411:A1 0.000139337
71 *63:85 *441:B2 1.21258e-05
72 *63:85 *533:A 0.000356682
73 *63:85 *88:18 9.83442e-05
74 *63:93 *411:A1 1.05603e-05
75 *63:93 *439:B2 9.83388e-05
76 *63:93 *440:A 0.00025407
77 *63:93 *441:A1 9.96553e-05
78 *63:93 *503:A 1.76135e-05
79 *63:93 *529:A 9.50607e-05
80 *63:93 *533:A 0.000280305
81 *63:93 *99:71 0.000597695
82 *63:93 *105:8 0.000100555
83 *63:93 *176:8 0.00012403
84 *458:D *63:85 2.33087e-05
85 *463:D *63:81 0.000440374
86 *487:D *63:10 1.03904e-05
87 *487:D *63:14 0.000121054
88 *487:D *63:35 9.11048e-06
89 *487:D *63:65 1.64343e-05
*RES
1 *405:Y *63:8 14.7464 
2 *63:8 *63:10 7.71429 
3 *63:10 *63:14 5.27679 
4 *63:14 *453:B1 14.3804 
5 *63:14 *63:35 18.9375 
6 *63:35 *447:B1 28.55 
7 *63:35 *449:B1 9.3 
8 *63:10 *63:65 12.0357 
9 *63:65 *63:73 6.82143 
10 *63:73 *63:81 17.9107 
11 *63:81 *63:85 8.76786 
12 *63:85 *63:93 21.5357 
13 *63:93 *443:B1 23.1571 
14 *63:93 *439:B1 10.2643 
15 *63:85 *441:B1 10.0321 
16 *63:81 *408:A_N 9.3 