*SPEF "ieee 1481-1999"
*DESIGN "radio"
*DATE "09:42:56 Thursday June 26, 2025"
*VENDOR "The OpenROAD Project"
*PROGRAM "OpenROAD"
*VERSION "b16bda7e82721d10566ff7e2b68f1ff0be9f9e38"
*DESIGN_FLOW "NAME_SCOPE LOCAL" "PIN_CAP NONE"
*DIVIDER /
*DELIMITER :
*BUS_DELIMITER []
*T_UNIT 1 NS
*C_UNIT 1 PF
*R_UNIT 1 OHM
*L_UNIT 1 HENRY

*NAME_MAP
*1 Rx
*2 Tx
*5 busy
*6 clk
*7 enable
*8 receive
*9 rx_data[0]
*10 rx_data[1]
*11 rx_data[2]
*12 rx_data[3]
*13 rx_data[4]
*14 rx_data[5]
*15 rx_data[6]
*16 rx_data[7]
*17 send
*18 tx_data[0]
*19 tx_data[1]
*20 tx_data[2]
*21 tx_data[3]
*22 tx_data[4]
*23 tx_data[5]
*24 tx_data[6]
*25 tx_data[7]
*26 _000_
*27 _001_
*28 _002_
*29 _003_
*30 _004_
*31 _005_
*32 _006_
*33 _007_
*34 _008_
*35 _009_
*36 _010_
*37 _011_
*38 _012_
*39 _013_
*40 _014_
*41 _015_
*42 _016_
*43 _017_
*44 _018_
*45 _019_
*46 _020_
*47 _021_
*48 _022_
*49 _023_
*50 _024_
*51 _025_
*52 _026_
*53 _027_
*54 _028_
*55 _029_
*56 _030_
*57 _031_
*58 _032_
*59 _033_
*60 _034_
*61 _035_
*62 _036_
*63 _037_
*64 _038_
*65 _039_
*66 _040_
*67 _041_
*68 _042_
*69 _043_
*70 _044_
*71 _045_
*72 _046_
*73 _047_
*74 _048_
*75 _049_
*76 _050_
*77 _051_
*78 _052_
*79 _053_
*80 _054_
*81 _055_
*82 _056_
*83 _057_
*84 _058_
*85 _059_
*86 _060_
*87 _061_
*88 _062_
*89 _063_
*90 _064_
*91 _065_
*92 _066_
*93 _067_
*94 _068_
*95 _069_
*96 _070_
*97 _071_
*98 _072_
*99 _073_
*100 _074_
*101 _075_
*102 _076_
*103 _077_
*104 clknet_0_clk
*105 clknet_2_0__leaf_clk
*106 clknet_2_1__leaf_clk
*107 clknet_2_2__leaf_clk
*108 clknet_2_3__leaf_clk
*109 net1
*110 net10
*111 net11
*112 net12
*113 net13
*114 net14
*115 net15
*116 net16
*117 net17
*118 net18
*119 net19
*120 net2
*121 net20
*122 net21
*123 net22
*124 net23
*125 net24
*126 net25
*127 net26
*128 net27
*129 net28
*130 net29
*131 net3
*132 net30
*133 net31
*134 net32
*135 net33
*136 net34
*137 net35
*138 net36
*139 net37
*140 net38
*141 net39
*142 net4
*143 net40
*144 net41
*145 net42
*146 net43
*147 net44
*148 net45
*149 net46
*150 net47
*151 net48
*152 net49
*153 net5
*154 net50
*155 net51
*156 net52
*157 net53
*158 net54
*159 net55
*160 net56
*161 net57
*162 net58
*163 net59
*164 net6
*165 net60
*166 net61
*167 net7
*168 net8
*169 net9
*170 rx_bit_cnt\[0\]
*171 rx_bit_cnt\[1\]
*172 rx_bit_cnt\[2\]
*173 rx_busy
*174 rx_shift_reg\[0\]
*175 rx_shift_reg\[1\]
*176 rx_shift_reg\[2\]
*177 rx_shift_reg\[3\]
*178 rx_shift_reg\[4\]
*179 rx_shift_reg\[5\]
*180 rx_shift_reg\[6\]
*181 rx_shift_reg\[7\]
*182 tx_bit_cnt\[0\]
*183 tx_bit_cnt\[1\]
*184 tx_bit_cnt\[2\]
*185 tx_busy
*186 tx_shift_reg\[0\]
*187 tx_shift_reg\[1\]
*188 tx_shift_reg\[2\]
*189 tx_shift_reg\[3\]
*190 tx_shift_reg\[4\]
*191 tx_shift_reg\[5\]
*192 tx_shift_reg\[6\]
*193 tx_shift_reg\[7\]
*194 FILLER_0_0_104
*195 FILLER_0_0_15
*196 FILLER_0_0_27
*197 FILLER_0_0_29
*198 FILLER_0_0_3
*199 FILLER_0_0_42
*200 FILLER_0_0_72
*201 FILLER_0_0_81
*202 FILLER_0_0_92
*203 FILLER_0_10_108
*204 FILLER_0_10_15
*205 FILLER_0_10_19
*206 FILLER_0_10_25
*207 FILLER_0_10_29
*208 FILLER_0_10_3
*209 FILLER_0_10_46
*210 FILLER_0_10_70
*211 FILLER_0_10_76
*212 FILLER_0_11_109
*213 FILLER_0_11_30
*214 FILLER_0_11_50
*215 FILLER_0_11_57
*216 FILLER_0_11_6
*217 FILLER_0_12_109
*218 FILLER_0_12_33
*219 FILLER_0_12_58
*220 FILLER_0_12_6
*221 FILLER_0_12_69
*222 FILLER_0_12_75
*223 FILLER_0_12_83
*224 FILLER_0_13_11
*225 FILLER_0_13_3
*226 FILLER_0_13_43
*227 FILLER_0_13_54
*228 FILLER_0_13_57
*229 FILLER_0_13_69
*230 FILLER_0_13_81
*231 FILLER_0_13_93
*232 FILLER_0_14_105
*233 FILLER_0_14_49
*234 FILLER_0_14_56
*235 FILLER_0_14_6
*236 FILLER_0_14_68
*237 FILLER_0_14_75
*238 FILLER_0_15_10
*239 FILLER_0_15_107
*240 FILLER_0_15_35
*241 FILLER_0_15_54
*242 FILLER_0_15_6
*243 FILLER_0_16_109
*244 FILLER_0_16_3
*245 FILLER_0_16_58
*246 FILLER_0_17_107
*247 FILLER_0_17_15
*248 FILLER_0_17_3
*249 FILLER_0_17_42
*250 FILLER_0_17_55
*251 FILLER_0_17_65
*252 FILLER_0_17_99
*253 FILLER_0_18_109
*254 FILLER_0_18_15
*255 FILLER_0_18_27
*256 FILLER_0_18_29
*257 FILLER_0_18_3
*258 FILLER_0_18_34
*259 FILLER_0_18_46
*260 FILLER_0_18_71
*261 FILLER_0_18_83
*262 FILLER_0_18_85
*263 FILLER_0_18_97
*264 FILLER_0_1_15
*265 FILLER_0_1_27
*266 FILLER_0_1_3
*267 FILLER_0_1_44
*268 FILLER_0_2_109
*269 FILLER_0_2_15
*270 FILLER_0_2_29
*271 FILLER_0_2_3
*272 FILLER_0_2_48
*273 FILLER_0_2_83
*274 FILLER_0_3_100
*275 FILLER_0_3_109
*276 FILLER_0_3_11
*277 FILLER_0_3_3
*278 FILLER_0_3_57
*279 FILLER_0_4_3
*280 FILLER_0_4_37
*281 FILLER_0_4_46
*282 FILLER_0_4_64
*283 FILLER_0_4_75
*284 FILLER_0_4_9
*285 FILLER_0_4_90
*286 FILLER_0_5_109
*287 FILLER_0_5_3
*288 FILLER_0_5_50
*289 FILLER_0_5_64
*290 FILLER_0_5_9
*291 FILLER_0_6_105
*292 FILLER_0_6_25
*293 FILLER_0_6_3
*294 FILLER_0_6_60
*295 FILLER_0_6_93
*296 FILLER_0_7_6
*297 FILLER_0_8_108
*298 FILLER_0_8_20
*299 FILLER_0_8_3
*300 FILLER_0_8_45
*301 FILLER_0_9_15
*302 FILLER_0_9_3
*303 FILLER_0_9_38
*304 FILLER_0_9_46
*305 FILLER_0_9_53
*306 FILLER_0_9_90
*307 FILLER_0_9_99
*308 PHY_EDGE_ROW_0_Left_19
*309 PHY_EDGE_ROW_0_Right_0
*310 PHY_EDGE_ROW_10_Left_29
*311 PHY_EDGE_ROW_10_Right_10
*312 PHY_EDGE_ROW_11_Left_30
*313 PHY_EDGE_ROW_11_Right_11
*314 PHY_EDGE_ROW_12_Left_31
*315 PHY_EDGE_ROW_12_Right_12
*316 PHY_EDGE_ROW_13_Left_32
*317 PHY_EDGE_ROW_13_Right_13
*318 PHY_EDGE_ROW_14_Left_33
*319 PHY_EDGE_ROW_14_Right_14
*320 PHY_EDGE_ROW_15_Left_34
*321 PHY_EDGE_ROW_15_Right_15
*322 PHY_EDGE_ROW_16_Left_35
*323 PHY_EDGE_ROW_16_Right_16
*324 PHY_EDGE_ROW_17_Left_36
*325 PHY_EDGE_ROW_17_Right_17
*326 PHY_EDGE_ROW_18_Left_37
*327 PHY_EDGE_ROW_18_Right_18
*328 PHY_EDGE_ROW_1_Left_20
*329 PHY_EDGE_ROW_1_Right_1
*330 PHY_EDGE_ROW_2_Left_21
*331 PHY_EDGE_ROW_2_Right_2
*332 PHY_EDGE_ROW_3_Left_22
*333 PHY_EDGE_ROW_3_Right_3
*334 PHY_EDGE_ROW_4_Left_23
*335 PHY_EDGE_ROW_4_Right_4
*336 PHY_EDGE_ROW_5_Left_24
*337 PHY_EDGE_ROW_5_Right_5
*338 PHY_EDGE_ROW_6_Left_25
*339 PHY_EDGE_ROW_6_Right_6
*340 PHY_EDGE_ROW_7_Left_26
*341 PHY_EDGE_ROW_7_Right_7
*342 PHY_EDGE_ROW_8_Left_27
*343 PHY_EDGE_ROW_8_Right_8
*344 PHY_EDGE_ROW_9_Left_28
*345 PHY_EDGE_ROW_9_Right_9
*346 TAP_TAPCELL_ROW_0_38
*347 TAP_TAPCELL_ROW_0_39
*348 TAP_TAPCELL_ROW_0_40
*349 TAP_TAPCELL_ROW_10_54
*350 TAP_TAPCELL_ROW_10_55
*351 TAP_TAPCELL_ROW_11_56
*352 TAP_TAPCELL_ROW_12_57
*353 TAP_TAPCELL_ROW_12_58
*354 TAP_TAPCELL_ROW_13_59
*355 TAP_TAPCELL_ROW_14_60
*356 TAP_TAPCELL_ROW_14_61
*357 TAP_TAPCELL_ROW_15_62
*358 TAP_TAPCELL_ROW_16_63
*359 TAP_TAPCELL_ROW_16_64
*360 TAP_TAPCELL_ROW_17_65
*361 TAP_TAPCELL_ROW_18_66
*362 TAP_TAPCELL_ROW_18_67
*363 TAP_TAPCELL_ROW_18_68
*364 TAP_TAPCELL_ROW_1_41
*365 TAP_TAPCELL_ROW_2_42
*366 TAP_TAPCELL_ROW_2_43
*367 TAP_TAPCELL_ROW_3_44
*368 TAP_TAPCELL_ROW_4_45
*369 TAP_TAPCELL_ROW_4_46
*370 TAP_TAPCELL_ROW_5_47
*371 TAP_TAPCELL_ROW_6_48
*372 TAP_TAPCELL_ROW_6_49
*373 TAP_TAPCELL_ROW_7_50
*374 TAP_TAPCELL_ROW_8_51
*375 TAP_TAPCELL_ROW_8_52
*376 TAP_TAPCELL_ROW_9_53
*377 _078_
*378 _079_
*379 _080_
*380 _081_
*381 _082_
*382 _083_
*383 _084_
*384 _085_
*385 _086_
*386 _087_
*387 _088_
*388 _089_
*389 _090_
*390 _091_
*391 _092_
*392 _093_
*393 _094_
*394 _095_
*395 _096_
*396 _097_
*397 _098_
*398 _099_
*399 _100_
*400 _101_
*401 _102_
*402 _103_
*403 _104_
*404 _105_
*405 _106_
*406 _107_
*407 _108_
*408 _109_
*409 _110_
*410 _111_
*411 _112_
*412 _113_
*413 _114_
*414 _115_
*415 _116_
*416 _117_
*417 _118_
*418 _119_
*419 _120_
*420 _121_
*421 _122_
*422 _123_
*423 _124_
*424 _125_
*425 _126_
*426 _127_
*427 _128_
*428 _129_
*429 _130_
*430 _131_
*431 _132_
*432 _133_
*433 _134_
*434 _135_
*435 _136_
*436 _137_
*437 _138_
*438 _139_
*439 _140_
*440 _141_
*441 _142_
*442 _143_
*443 _144_
*444 _145_
*445 _146_
*446 _147_
*447 _148_
*448 _149_
*449 _150_
*450 _151_
*451 _152_
*452 _153_
*453 _154_
*454 _155_
*455 _156_
*456 _157_
*457 _158_
*458 _159_
*459 _160_
*460 _161_
*461 _162_
*462 _163_
*463 _164_
*464 _165_
*465 _166_
*466 _167_
*467 _168_
*468 _169_
*469 _170_
*470 _171_
*471 _172_
*472 _173_
*473 _174_
*474 _175_
*475 _176_
*476 _177_
*477 _178_
*478 _179_
*479 _180_
*480 _181_
*481 _182_
*482 _183_
*483 _184_
*484 _185_
*485 _186_
*486 _187_
*487 _188_
*488 _189_
*489 clkbuf_0_clk
*490 clkbuf_2_0__f_clk
*491 clkbuf_2_1__f_clk
*492 clkbuf_2_2__f_clk
*493 clkbuf_2_3__f_clk
*494 clkload0
*495 clkload1
*496 clkload2
*497 hold1
*498 hold10
*499 hold11
*500 hold12
*501 hold13
*502 hold14
*503 hold15
*504 hold16
*505 hold17
*506 hold18
*507 hold19
*508 hold2
*509 hold20
*510 hold21
*511 hold22
*512 hold23
*513 hold24
*514 hold25
*515 hold26
*516 hold27
*517 hold28
*518 hold29
*519 hold3
*520 hold30
*521 hold31
*522 hold32
*523 hold33
*524 hold34
*525 hold35
*526 hold36
*527 hold37
*528 hold38
*529 hold39
*530 hold4
*531 hold5
*532 hold6
*533 hold7
*534 hold8
*535 hold9
*536 input1
*537 input10
*538 input11
*539 input12
*540 input2
*541 input3
*542 input4
*543 input5
*544 input6
*545 input7
*546 input8
*547 input9
*548 output13
*549 output14
*550 output15
*551 output16
*552 output17
*553 output18
*554 output19
*555 output20
*556 output21
*557 output22

*PORTS
Rx I
Tx O
busy O
clk I
enable I
receive I
rx_data[0] O
rx_data[1] O
rx_data[2] O
rx_data[3] O
rx_data[4] O
rx_data[5] O
rx_data[6] O
rx_data[7] O
send I
tx_data[0] I
tx_data[1] I
tx_data[2] I
tx_data[3] I
tx_data[4] I
tx_data[5] I
tx_data[6] I
tx_data[7] I

*D_NET *1 0.00104719
*CONN
*P Rx I
*I *536:A I *D sky130_fd_sc_hd__clkbuf_1
*CAP
1 Rx 0.000268807
2 *536:A 0.000268807
3 *536:A rx_data[7] 5.50837e-05
4 *536:A *509:A 0.000182344
5 *536:A *540:A 6.23346e-05
6 *536:A *41:20 0.000209816
*RES
1 Rx *536:A 49.6298 
*END

*D_NET *2 0.00154545
*CONN
*P Tx O
*I *548:X O *D sky130_fd_sc_hd__buf_1
*CAP
1 Tx 0.000292281
2 *548:X 0.000314109
3 *2:14 0.00060639
4 Tx busy 5.92004e-05
5 *2:14 *5:14 4.08643e-05
6 *2:14 *113:10 0
7 *2:14 *171:80 0.000232607
*RES
1 *548:X *2:14 44.6389 
2 *2:14 Tx 9.01547 
*END

*D_NET *5 0.00234185
*CONN
*P busy O
*I *549:X O *D sky130_fd_sc_hd__buf_1
*CAP
1 busy 0.000453453
2 *549:X 0.000396788
3 *5:14 0.000850241
4 busy *8:13 8.97484e-05
5 *5:14 *113:10 0.000111106
6 *5:14 *148:8 0.00034045
7 *5:14 *171:80 0
8 Tx busy 5.92004e-05
9 *2:14 *5:14 4.08643e-05
*RES
1 *549:X *5:14 46.6482 
2 *5:14 busy 9.35893 
*END

*D_NET *6 0.00806983
*CONN
*P clk I
*I *489:A I *D sky130_fd_sc_hd__clkbuf_16
*CAP
1 clk 0.00398362
2 *489:A 0
3 *6:23 0.00398362
4 *6:23 *547:A 0
5 *6:23 *23:17 3.12475e-05
6 *6:23 *187:18 7.13449e-05
*RES
1 clk *6:23 49.0674 
2 *6:23 *489:A 23 
*END

*D_NET *7 0.000800932
*CONN
*P enable I
*I *540:A I *D sky130_fd_sc_hd__dlymetal6s2s_1
*CAP
1 enable 0.000336433
2 *540:A 0.000336433
3 *540:A *8:13 6.57321e-05
4 *536:A *540:A 6.23346e-05
*RES
1 enable *540:A 49.2777 
*END

*D_NET *8 0.00113617
*CONN
*P receive I
*I *541:A I *D sky130_fd_sc_hd__buf_1
*CAP
1 receive 0.000453165
2 *541:A 0
3 *8:13 0.000453165
4 *8:13 *171:14 0
5 *8:13 *171:80 7.43606e-05
6 busy *8:13 8.97484e-05
7 *540:A *8:13 6.57321e-05
*RES
1 receive *8:13 29.3641 
2 *8:13 *541:A 23 
*END

*D_NET *9 0.000864283
*CONN
*P rx_data[0] O
*I *550:X O *D sky130_fd_sc_hd__buf_1
*CAP
1 rx_data[0] 0.000432142
2 *550:X 0.000432142
*RES
1 *550:X rx_data[0] 46.6171 
*END

*D_NET *10 0.000705587
*CONN
*P rx_data[1] O
*I *551:X O *D sky130_fd_sc_hd__buf_1
*CAP
1 rx_data[1] 4.64007e-05
2 *551:X 0.000306393
3 *10:16 0.000352793
*RES
1 *551:X *10:16 49.9587 
2 *10:16 rx_data[1] 0.199733 
*END

*D_NET *11 0.00108025
*CONN
*P rx_data[2] O
*I *552:X O *D sky130_fd_sc_hd__buf_1
*CAP
1 rx_data[2] 0.000490492
2 *552:X 0.000490492
3 rx_data[2] rx_data[3] 0
4 rx_data[2] *552:A 9.92697e-05
5 rx_data[2] *99:18 0
*RES
1 *552:X rx_data[2] 47.86 
*END

*D_NET *12 0.00140292
*CONN
*P rx_data[3] O
*I *553:X O *D sky130_fd_sc_hd__buf_1
*CAP
1 rx_data[3] 0.000513438
2 *553:X 0.000513438
3 rx_data[3] *37:10 0
4 rx_data[3] *53:10 7.89973e-05
5 rx_data[3] *99:18 0.000128497
6 rx_data[3] *99:20 1.37048e-05
7 rx_data[3] *99:37 0.000154843
8 rx_data[2] rx_data[3] 0
*RES
1 *553:X rx_data[3] 49.5793 
*END

*D_NET *13 0.00241806
*CONN
*P rx_data[4] O
*I *554:X O *D sky130_fd_sc_hd__buf_1
*CAP
1 rx_data[4] 0.00043868
2 *554:X 0.000213689
3 *13:8 0.00065237
4 rx_data[4] *414:B2 0
5 rx_data[4] *99:12 0.000187986
6 rx_data[4] *119:8 3.70094e-05
7 *13:8 *414:B2 2.18506e-05
8 *13:8 *554:A 0.000357338
9 *13:8 *55:10 0.000225282
10 *13:8 *65:152 9.5877e-05
11 *13:8 *119:12 0.000187976
*RES
1 *554:X *13:8 44.3386 
2 *13:8 rx_data[4] 9.40429 
*END

*D_NET *14 0.00159776
*CONN
*P rx_data[5] O
*I *555:X O *D sky130_fd_sc_hd__buf_1
*CAP
1 rx_data[5] 0.000487067
2 *555:X 0.00018551
3 *14:12 0.000672577
4 rx_data[5] rx_data[6] 6.57321e-05
5 *14:12 *556:A 0.000146984
6 *14:12 *121:23 0
7 *14:12 *137:8 3.98887e-05
*RES
1 *555:X *14:12 49.3039 
2 *14:12 rx_data[5] 1.35893 
*END

*D_NET *15 0.00112541
*CONN
*P rx_data[6] O
*I *556:X O *D sky130_fd_sc_hd__buf_1
*CAP
1 rx_data[6] 0.000205638
2 *556:X 0.000241749
3 *15:8 0.000447387
4 rx_data[6] rx_data[7] 0
5 *15:8 *121:23 0.000139699
6 *15:8 *123:21 2.52012e-05
7 rx_data[5] rx_data[6] 6.57321e-05
*RES
1 *556:X *15:8 43.2511 
2 *15:8 rx_data[6] 8.84373 
*END

*D_NET *16 0.00101341
*CONN
*P rx_data[7] O
*I *557:X O *D sky130_fd_sc_hd__buf_1
*CAP
1 rx_data[7] 0.000220623
2 *557:X 0.00019585
3 *16:10 0.000416473
4 *16:10 *41:20 0.000125378
5 rx_data[6] rx_data[7] 0
6 *536:A rx_data[7] 5.50837e-05
*RES
1 *557:X *16:10 49.8425 
2 *16:10 rx_data[7] 0.843733 
*END

*D_NET *17 0.000945604
*CONN
*P send I
*I *542:A I *D sky130_fd_sc_hd__dlymetal6s2s_1
*CAP
1 send 0.00045829
2 *542:A 0.00045829
3 *542:A *18:11 0
4 *542:A *92:16 2.90238e-05
*RES
1 send *542:A 48.1707 
*END

*D_NET *18 0.00143476
*CONN
*P tx_data[0] I
*I *543:A I *D sky130_fd_sc_hd__clkbuf_1
*CAP
1 tx_data[0] 0.000525901
2 *543:A 0
3 *18:11 0.000525901
4 *18:11 *544:A 0
5 *18:11 *72:24 0.000229122
6 *18:11 *92:8 2.96051e-05
7 *18:11 *142:10 0.000124232
8 *542:A *18:11 0
*RES
1 tx_data[0] *18:11 27.4286 
2 *18:11 *543:A 23 
*END

*D_NET *19 0.00116893
*CONN
*P tx_data[1] I
*I *544:A I *D sky130_fd_sc_hd__clkbuf_1
*CAP
1 tx_data[1] 0.000505589
2 *544:A 0.000505589
3 *544:A *427:A 0
4 *544:A *428:A 0.000147656
5 *544:A *539:A 0
6 *544:A *90:131 1.0092e-05
7 *544:A *92:8 0
8 *18:11 *544:A 0
*RES
1 tx_data[1] *544:A 49.3307 
*END

*D_NET *20 0.000648567
*CONN
*P tx_data[2] I
*I *545:A I *D sky130_fd_sc_hd__clkbuf_1
*CAP
1 tx_data[2] 0.000299704
2 *545:A 0
3 *20:17 0.000299704
4 *20:17 *546:A 2.12457e-05
5 *20:17 *547:A 2.79122e-05
*RES
1 tx_data[2] *20:17 27.1584 
2 *20:17 *545:A 23 
*END

*D_NET *21 0.000582239
*CONN
*P tx_data[3] I
*I *546:A I *D sky130_fd_sc_hd__clkbuf_1
*CAP
1 tx_data[3] 0.000280497
2 *546:A 0.000280497
3 *546:A *547:A 0
4 *20:17 *546:A 2.12457e-05
*RES
1 tx_data[3] *546:A 48.1354 
*END

*D_NET *22 0.000716202
*CONN
*P tx_data[4] I
*I *547:A I *D sky130_fd_sc_hd__clkbuf_1
*CAP
1 tx_data[4] 0.000333522
2 *547:A 0.000333522
3 *547:A *23:17 2.12457e-05
4 *546:A *547:A 0
5 *6:23 *547:A 0
6 *20:17 *547:A 2.79122e-05
*RES
1 tx_data[4] *547:A 49.1918 
*END

*D_NET *23 0.00070451
*CONN
*P tx_data[5] I
*I *537:A I *D sky130_fd_sc_hd__clkbuf_1
*CAP
1 tx_data[5] 0.000326008
2 *537:A 0
3 *23:17 0.000326008
4 *547:A *23:17 2.12457e-05
5 *6:23 *23:17 3.12475e-05
*RES
1 tx_data[5] *23:17 27.8627 
2 *23:17 *537:A 23 
*END

*D_NET *24 0.00109025
*CONN
*P tx_data[6] I
*I *538:A I *D sky130_fd_sc_hd__clkbuf_1
*CAP
1 tx_data[6] 0.000528815
2 *538:A 0.000528815
3 *538:A *111:10 3.26241e-05
*RES
1 tx_data[6] *538:A 49.3307 
*END

*D_NET *25 0.00119989
*CONN
*P tx_data[7] I
*I *539:A I *D sky130_fd_sc_hd__clkbuf_1
*CAP
1 tx_data[7] 0.000555251
2 *539:A 0.000555251
3 *539:A *427:A 2.8183e-05
4 *539:A *74:10 7.18634e-06
5 *539:A *112:8 5.40241e-05
6 *544:A *539:A 0
*RES
1 tx_data[7] *539:A 49.8071 
*END

*D_NET *26 0.00102324
*CONN
*I *456:D I *D sky130_fd_sc_hd__dfxtp_1
*I *385:X O *D sky130_fd_sc_hd__and2_1
*CAP
1 *456:D 9.26771e-06
2 *385:X 0.000180263
3 *26:10 0.000189531
4 *456:D *383:B 4.9054e-06
5 *456:D *456:CLK 1.64354e-05
6 *26:10 *388:B 0.000380892
7 *26:10 *391:A 5.82853e-05
8 *26:10 *90:10 0.000183663
*RES
1 *385:X *26:10 43.6964 
2 *26:10 *456:D 38.1916 
*END

*D_NET *27 0.000867614
*CONN
*I *457:D I *D sky130_fd_sc_hd__dfxtp_1
*I *388:X O *D sky130_fd_sc_hd__and2_1
*CAP
1 *457:D 0
2 *388:X 0.000433807
3 *27:6 0.000433807
*RES
1 *388:X *27:6 29.3852 
2 *27:6 *457:D 23 
*END

*D_NET *28 0.00122284
*CONN
*I *458:D I *D sky130_fd_sc_hd__dfxtp_1
*I *391:X O *D sky130_fd_sc_hd__and2_1
*CAP
1 *458:D 1.58638e-05
2 *391:X 0.000334224
3 *28:10 0.000350087
4 *28:10 *391:B 5.40337e-05
5 *28:10 *394:B1 0.000273779
6 *28:10 *63:85 2.19667e-05
7 *28:10 *98:10 0.000172886
8 *28:10 *107:18 0
*RES
1 *391:X *28:10 45.1257 
2 *28:10 *458:D 38.1916 
*END

*D_NET *29 0.000494365
*CONN
*I *459:D I *D sky130_fd_sc_hd__dfxtp_1
*I *395:X O *D sky130_fd_sc_hd__and2_1
*CAP
1 *459:D 6.36186e-05
2 *395:X 0.000119912
3 *29:8 0.000183531
4 *459:D *107:63 6.24894e-05
5 *459:D *168:10 4.65096e-05
6 *29:8 *99:103 1.83046e-05
*RES
1 *395:X *29:8 40.2579 
2 *29:8 *459:D 39.6209 
*END

*D_NET *30 0.000539441
*CONN
*I *460:D I *D sky130_fd_sc_hd__dfxtp_1
*I *398:X O *D sky130_fd_sc_hd__and2_1
*CAP
1 *460:D 4.67363e-06
2 *398:X 0.000247844
3 *30:10 0.000252517
4 *460:D *460:CLK 1.64354e-05
5 *460:D *167:16 1.79713e-05
*RES
1 *398:X *30:10 41.7079 
2 *30:10 *460:D 38.1916 
*END

*D_NET *31 0.000862545
*CONN
*I *461:D I *D sky130_fd_sc_hd__dfxtp_1
*I *401:X O *D sky130_fd_sc_hd__and2_1
*CAP
1 *461:D 5.54559e-05
2 *401:X 0.000124572
3 *31:10 0.000180028
4 *461:D *461:CLK 4.59522e-05
5 *461:D *110:8 0.000145274
6 *31:10 *99:113 0.000165034
7 *31:10 *107:98 8.88993e-05
8 *31:10 *169:6 5.73309e-05
*RES
1 *401:X *31:10 40.8793 
2 *31:10 *461:D 39.6209 
*END

*D_NET *32 0.00046243
*CONN
*I *462:D I *D sky130_fd_sc_hd__dfxtp_1
*I *404:X O *D sky130_fd_sc_hd__and2_1
*CAP
1 *462:D 6.22946e-05
2 *404:X 9.79329e-05
3 *32:8 0.000160227
4 *32:8 *107:98 0.000141975
*RES
1 *404:X *32:8 40.2579 
2 *32:8 *462:D 38.9943 
*END

*D_NET *33 0.00147567
*CONN
*I *463:D I *D sky130_fd_sc_hd__dfxtp_2
*I *408:X O *D sky130_fd_sc_hd__and2b_1
*CAP
1 *463:D 3.9644e-05
2 *408:X 0.000282401
3 *33:10 0.000322045
4 *463:D *65:16 8.91085e-05
5 *33:10 *63:81 0.000453155
6 *33:10 *65:92 0
7 *33:10 *88:14 0.000279219
8 *33:10 *106:35 1.0092e-05
*RES
1 *408:X *33:10 46.0786 
2 *33:10 *463:D 38.9943 
*END

*D_NET *34 0.000642878
*CONN
*I *508:A I *D sky130_fd_sc_hd__dlygate4sd3_1
*I *410:X O *D sky130_fd_sc_hd__a22o_1
*CAP
1 *508:A 2.16649e-05
2 *410:X 0.000165037
3 *34:10 0.000186702
4 *508:A *443:A1 0.000100069
5 *508:A *443:B2 0.000100069
6 *34:10 *410:B2 5.79559e-05
7 *34:10 *443:A2 1.13812e-05
*RES
1 *410:X *34:10 40.5271 
2 *34:10 *508:A 39.0979 
*END

*D_NET *35 0.00141356
*CONN
*I *534:A I *D sky130_fd_sc_hd__dlygate4sd3_1
*I *411:X O *D sky130_fd_sc_hd__a22o_1
*CAP
1 *534:A 0
2 *411:X 0.000408004
3 *35:10 0.000408004
4 *35:10 *411:A2 6.74169e-05
5 *35:10 *529:A 0.000275408
6 *35:10 *107:18 0.000198921
7 *35:10 *132:10 5.58003e-05
*RES
1 *411:X *35:10 31.7621 
2 *35:10 *534:A 23 
*END

*D_NET *36 0.000574247
*CONN
*I *504:A I *D sky130_fd_sc_hd__dlygate4sd3_1
*I *412:X O *D sky130_fd_sc_hd__a22o_1
*CAP
1 *504:A 0.000147401
2 *412:X 0.000147401
3 *504:A *412:B1 0.000221159
4 *504:A *106:29 5.82853e-05
*RES
1 *412:X *504:A 49.9771 
*END

*D_NET *37 0.00182224
*CONN
*I *500:A I *D sky130_fd_sc_hd__dlygate4sd3_1
*I *413:X O *D sky130_fd_sc_hd__a22o_1
*CAP
1 *500:A 0.00011464
2 *413:X 0.000437587
3 *37:10 0.000552226
4 *37:10 *413:B2 0.000233211
5 *37:10 *467:CLK 0.000163102
6 *37:10 *53:10 0
7 *37:10 *65:43 7.9566e-05
8 *37:10 *66:67 4.76661e-05
9 *37:10 *105:47 6.2088e-05
10 *37:10 *105:64 2.64616e-05
11 *37:10 *115:33 2.38362e-05
12 *37:10 *136:8 8.18544e-05
13 rx_data[3] *37:10 0
*RES
1 *413:X *37:10 48.5643 
2 *37:10 *500:A 40.0507 
*END

*D_NET *38 0.000589306
*CONN
*I *530:A I *D sky130_fd_sc_hd__dlygate4sd3_1
*I *414:X O *D sky130_fd_sc_hd__a22o_1
*CAP
1 *530:A 0
2 *414:X 0.000125984
3 *38:10 0.000125984
4 *38:10 *54:10 5.25848e-05
5 *38:10 *117:23 0.000141261
6 *38:10 *159:16 0.000143492
*RES
1 *414:X *38:10 41.0036 
2 *38:10 *530:A 38 
*END

*D_NET *39 0.00179473
*CONN
*I *502:A I *D sky130_fd_sc_hd__dlygate4sd3_1
*I *415:X O *D sky130_fd_sc_hd__a22o_1
*CAP
1 *502:A 0
2 *415:X 0.000575659
3 *39:10 0.000575659
4 *39:10 *469:D 5.73018e-05
5 *39:10 *40:10 2.56091e-05
6 *39:10 *106:68 0.000223805
7 *39:10 *106:80 9.64943e-05
8 *39:10 *134:8 1.07299e-05
9 *39:10 *137:22 0.000229473
*RES
1 *415:X *39:10 48.1086 
2 *39:10 *502:A 38 
*END

*D_NET *40 0.00152952
*CONN
*I *498:A I *D sky130_fd_sc_hd__dlygate4sd3_1
*I *416:X O *D sky130_fd_sc_hd__a22o_1
*CAP
1 *498:A 0.000124329
2 *416:X 0.000415162
3 *40:10 0.000539491
4 *498:A *128:12 0.000146984
5 *40:10 *416:A1 3.06338e-05
6 *40:10 *416:B2 0
7 *40:10 *106:68 2.79653e-05
8 *40:10 *133:8 2.3178e-05
9 *40:10 *134:8 0.000196165
10 *39:10 *40:10 2.56091e-05
*RES
1 *416:X *40:10 46.6379 
2 *40:10 *498:A 40.5271 
*END

*D_NET *41 0.00340042
*CONN
*I *532:A I *D sky130_fd_sc_hd__dlygate4sd3_1
*I *417:X O *D sky130_fd_sc_hd__a22o_1
*CAP
1 *532:A 0
2 *417:X 0.000717518
3 *41:20 0.000436106
4 *41:12 0.00115362
5 *41:12 *437:A1 1.84831e-05
6 *41:12 *479:CLK 2.64616e-05
7 *41:12 *479:D 5.73018e-05
8 *41:12 *79:10 0.000186032
9 *41:12 *88:63 0.000189848
10 *41:12 *170:60 1.47795e-05
11 *41:12 *171:29 0.000145663
12 *41:12 *171:35 7.64059e-06
13 *41:12 *172:10 2.86326e-05
14 *41:20 *509:A 3.26194e-05
15 *41:20 *172:10 5.0518e-05
16 *536:A *41:20 0.000209816
17 *16:10 *41:20 0.000125378
*RES
1 *417:X *41:12 37.1479 
2 *41:12 *41:20 39.3421 
3 *41:20 *532:A 23 
*END

*D_NET *42 0.000953209
*CONN
*I *472:D I *D sky130_fd_sc_hd__dfxtp_1
*I *419:X O *D sky130_fd_sc_hd__o211a_1
*CAP
1 *472:D 2.89801e-05
2 *419:X 0.000230921
3 *42:8 0.000259901
4 *472:D *108:60 0.000146213
5 *472:D *183:20 6.00679e-05
6 *42:8 *69:10 0
7 *42:8 *90:73 8.71164e-05
8 *42:8 *90:96 7.74223e-05
9 *42:8 *182:43 6.25872e-05
*RES
1 *419:X *42:8 42.7229 
2 *42:8 *472:D 39.6209 
*END

*D_NET *43 6.65447e-05
*CONN
*I *511:A I *D sky130_fd_sc_hd__dlygate4sd3_1
*I *422:X O *D sky130_fd_sc_hd__o211a_1
*CAP
1 *511:A 3.32723e-05
2 *422:X 3.32723e-05
*RES
1 *422:X *511:A 46.6214 
*END

*D_NET *44 0.000978476
*CONN
*I *474:D I *D sky130_fd_sc_hd__dfxtp_1
*I *426:X O *D sky130_fd_sc_hd__o221a_1
*CAP
1 *474:D 0.000126896
2 *426:X 0.000123898
3 *44:8 0.000250794
4 *474:D *423:C1 5.99746e-05
5 *474:D *108:84 0.00022701
6 *44:8 *67:10 0.000189903
*RES
1 *426:X *44:8 40.61 
2 *44:8 *474:D 40.5737 
*END

*D_NET *45 0.000972981
*CONN
*I *475:D I *D sky130_fd_sc_hd__dfxtp_1
*I *429:X O *D sky130_fd_sc_hd__o2111a_1
*CAP
1 *475:D 0.000169619
2 *429:X 0.000243062
3 *45:8 0.000412681
4 *475:D *185:23 0.000100069
5 *45:8 *73:10 0
6 *45:8 *185:23 4.75505e-05
*RES
1 *429:X *45:8 42.3707 
2 *45:8 *475:D 40.5737 
*END

*D_NET *46 0.00170131
*CONN
*I *476:D I *D sky130_fd_sc_hd__dfxtp_1
*I *430:X O *D sky130_fd_sc_hd__and3_1
*CAP
1 *476:D 0.000149964
2 *430:X 0.000526894
3 *46:10 0.000676858
4 *476:D *476:CLK 7.95762e-05
5 *46:10 *433:A 7.43845e-05
6 *46:10 *433:B 3.52233e-06
7 *46:10 *76:10 1.08287e-05
8 *46:10 *88:125 0
9 *46:10 *88:133 3.75032e-05
10 *46:10 *108:14 0.000140884
11 *46:10 *120:120 8.91468e-07
*RES
1 *430:X *46:10 45.8507 
2 *46:10 *476:D 40.843 
*END

*D_NET *47 0.00122263
*CONN
*I *477:D I *D sky130_fd_sc_hd__dfxtp_1
*I *432:X O *D sky130_fd_sc_hd__o211a_1
*CAP
1 *477:D 1.26909e-05
2 *432:X 0.000333592
3 *47:10 0.000346283
4 *477:D *131:10 8.15899e-06
5 *47:10 *435:B1 0.00017339
6 *47:10 *77:10 2.29192e-05
7 *47:10 *88:116 0
8 *47:10 *88:125 0
9 *47:10 *108:35 6.7177e-06
10 *47:10 *131:10 9.29642e-05
11 *47:10 *149:10 5.56203e-05
12 *47:10 *150:10 0.000166609
13 *47:10 *170:10 0
14 *47:10 *170:35 3.68379e-06
*RES
1 *432:X *47:10 45.1257 
2 *47:10 *477:D 38.1916 
*END

*D_NET *48 0.00133813
*CONN
*I *513:A I *D sky130_fd_sc_hd__dlygate4sd3_1
*I *435:X O *D sky130_fd_sc_hd__o211a_1
*CAP
1 *513:A 0
2 *435:X 0.000378438
3 *48:10 0.000378438
4 *48:10 *406:B 0.00027266
5 *48:10 *120:16 0.000224975
6 *48:10 *171:14 8.36198e-05
*RES
1 *435:X *48:10 45.25 
2 *48:10 *513:A 38 
*END

*D_NET *49 0.000398861
*CONN
*I *479:D I *D sky130_fd_sc_hd__dfxtp_1
*I *438:X O *D sky130_fd_sc_hd__o211a_1
*CAP
1 *479:D 4.40241e-05
2 *438:X 7.01378e-05
3 *49:8 0.000114162
4 *49:8 *149:10 0.000113235
5 *41:12 *479:D 5.73018e-05
*RES
1 *438:X *49:8 39.5536 
2 *49:8 *479:D 38.668 
*END

*D_NET *50 0.000324673
*CONN
*I *480:D I *D sky130_fd_sc_hd__dfxtp_1
*I *440:X O *D sky130_fd_sc_hd__and2_1
*CAP
1 *480:D 6.26879e-05
2 *440:X 7.15356e-05
3 *50:8 0.000134223
4 *50:8 *88:20 0
5 *50:8 *105:21 5.62263e-05
*RES
1 *440:X *50:8 39.5536 
2 *50:8 *480:D 38.9373 
*END

*D_NET *51 0.000611193
*CONN
*I *481:D I *D sky130_fd_sc_hd__dfxtp_1
*I *442:X O *D sky130_fd_sc_hd__and2_1
*CAP
1 *481:D 9.38574e-05
2 *442:X 9.09679e-05
3 *51:8 0.000184825
4 *481:D *551:A 0.00019346
5 *51:8 *88:20 4.80826e-05
*RES
1 *442:X *51:8 39.5536 
2 *51:8 *481:D 40.0973 
*END

*D_NET *52 0.00134047
*CONN
*I *482:D I *D sky130_fd_sc_hd__dfxtp_1
*I *444:X O *D sky130_fd_sc_hd__and2_1
*CAP
1 *482:D 5.52931e-05
2 *444:X 0.000409601
3 *52:10 0.000464894
4 *482:D *482:CLK 0.000104415
5 *52:10 *444:B 0.000248151
6 *52:10 *99:37 5.8118e-05
7 *52:10 *105:45 0
8 *52:10 *105:89 0
9 *52:10 *139:8 0
*RES
1 *444:X *52:10 46.5136 
2 *52:10 *482:D 39.1445 
*END

*D_NET *53 0.000826629
*CONN
*I *483:D I *D sky130_fd_sc_hd__dfxtp_1
*I *446:X O *D sky130_fd_sc_hd__and2_1
*CAP
1 *483:D 7.17495e-06
2 *446:X 0.00024202
3 *53:10 0.000249195
4 *483:D *66:67 1.64354e-05
5 *483:D *105:64 1.64354e-05
6 *53:10 *99:37 0.000216371
7 rx_data[3] *53:10 7.89973e-05
8 *37:10 *53:10 0
*RES
1 *446:X *53:10 42.9921 
2 *53:10 *483:D 38.1916 
*END

*D_NET *54 0.000825093
*CONN
*I *484:D I *D sky130_fd_sc_hd__dfxtp_1
*I *448:X O *D sky130_fd_sc_hd__and2_1
*CAP
1 *484:D 3.95559e-05
2 *448:X 0.00023276
3 *54:10 0.000272316
4 *484:D *484:CLK 9.07715e-05
5 *54:10 *552:A 2.93747e-05
6 *54:10 *99:12 0
7 *54:10 *117:23 0.000107731
8 *38:10 *54:10 5.25848e-05
*RES
1 *448:X *54:10 42.5364 
2 *54:10 *484:D 38.9943 
*END

*D_NET *55 0.00161472
*CONN
*I *485:D I *D sky130_fd_sc_hd__dfxtp_1
*I *450:X O *D sky130_fd_sc_hd__and2_1
*CAP
1 *485:D 8.11845e-05
2 *450:X 0.000449802
3 *55:10 0.000530987
4 *55:10 *554:A 1.71761e-05
5 *55:10 *65:128 4.72795e-05
6 *55:10 *65:140 0.000137937
7 *55:10 *65:165 1.69395e-05
8 *55:10 *106:80 0.000108129
9 *13:8 *55:10 0.000225282
*RES
1 *450:X *55:10 45.4986 
2 *55:10 *485:D 39.3102 
*END

*D_NET *56 0.00149775
*CONN
*I *486:D I *D sky130_fd_sc_hd__dfxtp_1
*I *452:X O *D sky130_fd_sc_hd__and2_1
*CAP
1 *486:D 4.37358e-05
2 *452:X 0.000513915
3 *56:12 0.000557651
4 *486:D *106:12 1.64354e-05
5 *486:D *120:32 4.89546e-05
6 *56:12 *104:22 0.000294413
7 *56:12 *117:23 2.26497e-05
*RES
1 *452:X *56:12 47.4933 
2 *56:12 *486:D 46.8648 
*END

*D_NET *57 0.00119442
*CONN
*I *487:D I *D sky130_fd_sc_hd__dfxtp_1
*I *454:X O *D sky130_fd_sc_hd__and2_1
*CAP
1 *487:D 7.17495e-06
2 *454:X 0.000405354
3 *57:10 0.000412529
4 *487:D *63:65 1.64354e-05
5 *487:D *161:10 1.64354e-05
6 *57:10 *453:B2 0
7 *57:10 *63:10 1.07299e-05
8 *57:10 *63:14 0.000125551
9 *57:10 *63:33 1.00084e-05
10 *57:10 *87:10 9.41704e-05
11 *57:10 *104:22 2.26406e-05
12 *57:10 *120:42 7.33916e-05
*RES
1 *454:X *57:10 44.8979 
2 *57:10 *487:D 38.1916 
*END

*D_NET *58 0.00101709
*CONN
*I *488:D I *D sky130_fd_sc_hd__dfxtp_1
*I *455:X O *D sky130_fd_sc_hd__o21a_1
*CAP
1 *488:D 4.06476e-05
2 *455:X 0.000237425
3 *58:10 0.000278073
4 *488:D *402:A 9.16017e-05
5 *58:10 *428:A 5.58003e-05
6 *58:10 *506:A 0.000103123
7 *58:10 *90:131 3.64813e-05
8 *58:10 *164:12 0.000173935
*RES
1 *455:X *58:10 43.6964 
2 *58:10 *488:D 38.9943 
*END

*D_NET *59 0.000416407
*CONN
*I *400:C1 I *D sky130_fd_sc_hd__a221o_1
*I *399:X O *D sky130_fd_sc_hd__and2_1
*CAP
1 *400:C1 0
2 *399:X 7.84381e-05
3 *59:8 7.84381e-05
4 *59:8 *396:A 8.85189e-05
5 *59:8 *403:B1 4.77911e-05
6 *59:8 *520:A 8.69741e-05
7 *59:8 *92:82 3.62464e-05
*RES
1 *399:X *59:8 40.2579 
2 *59:8 *400:C1 38 
*END

*D_NET *60 0.00180115
*CONN
*I *401:B I *D sky130_fd_sc_hd__and2_1
*I *400:X O *D sky130_fd_sc_hd__a221o_1
*CAP
1 *401:B 0.000197323
2 *400:X 9.12418e-05
3 *60:8 0.000288565
4 *401:B *401:A 4.344e-05
5 *401:B *169:6 0.000613245
6 *401:B *185:53 0.00039238
7 *401:B *192:14 2.32004e-05
8 *60:8 *92:82 1.62015e-05
9 *60:8 *192:14 0.000135557
*RES
1 *400:X *60:8 39.9057 
2 *60:8 *401:B 45.3121 
*END

*D_NET *61 0.000766246
*CONN
*I *403:C1 I *D sky130_fd_sc_hd__a221o_1
*I *402:X O *D sky130_fd_sc_hd__and2_1
*CAP
1 *403:C1 0
2 *402:X 0.000250886
3 *61:8 0.000250886
4 *61:8 *403:B1 5.90756e-05
5 *61:8 *403:B2 0.000189259
6 *61:8 *520:A 1.61385e-05
*RES
1 *402:X *61:8 28.4064 
2 *61:8 *403:C1 23 
*END

*D_NET *62 0.000284085
*CONN
*I *404:B I *D sky130_fd_sc_hd__and2_1
*I *403:X O *D sky130_fd_sc_hd__a221o_1
*CAP
1 *404:B 0.000142042
2 *403:X 0.000142042
3 *404:B *403:B1 0
*RES
1 *403:X *404:B 48.5789 
*END

*D_NET *63 0.0176018
*CONN
*I *434:B1 I *D sky130_fd_sc_hd__a22o_1
*I *451:B1 I *D sky130_fd_sc_hd__a22o_1
*I *445:B1 I *D sky130_fd_sc_hd__a22o_1
*I *408:A_N I *D sky130_fd_sc_hd__and2b_1
*I *441:B1 I *D sky130_fd_sc_hd__a22o_1
*I *439:B1 I *D sky130_fd_sc_hd__a22o_1
*I *443:B1 I *D sky130_fd_sc_hd__a22o_1
*I *449:B1 I *D sky130_fd_sc_hd__a22o_1
*I *447:B1 I *D sky130_fd_sc_hd__a22o_1
*I *453:B1 I *D sky130_fd_sc_hd__a22o_1
*I *405:Y O *D sky130_fd_sc_hd__nor2_2
*CAP
1 *434:B1 0.00036777
2 *451:B1 0
3 *445:B1 0.000114162
4 *408:A_N 0
5 *441:B1 3.56555e-05
6 *439:B1 2.94738e-05
7 *443:B1 0
8 *449:B1 0
9 *447:B1 0
10 *453:B1 4.58244e-05
11 *405:Y 8.96336e-05
12 *63:103 0.000244188
13 *63:93 0.000712597
14 *63:85 0.000898885
15 *63:81 0.000930719
16 *63:73 0.000782543
17 *63:65 0.000772333
18 *63:49 0.000681104
19 *63:35 0.000681104
20 *63:33 0.000390936
21 *63:14 0.000678184
22 *63:10 0.00133438
23 *63:8 0.000939987
24 *434:B1 *75:10 6.55412e-05
25 *434:B1 *76:10 0.000128796
26 *434:B1 *171:35 0.000188311
27 *439:B1 *105:8 5.79559e-05
28 *441:B1 *175:37 5.55743e-06
29 *445:B1 *99:12 5.11935e-06
30 *445:B1 *104:10 0.000150329